LAMMPS (29 Oct 2020)
##lammps #碳纳米管交链石墨烯拉伸分子动力模拟
processors      * * 2
units           metal
boundary        p  p  p
atom_style      atomic
read_data       gr_cnt.txt   #读入结构文件
Reading data file ...
  orthogonal box = (-33.662210 -26.751400 -80.000000) to (67.324420 60.756630 80.000000)
  reading atoms ...
  9216 atoms
mass    		*  12.011    #C     碳原子
pair_style      airebo 3.0 1 0
pair_coeff		* *  CH_tensile.airebo C  #势函数文件
Reading airebo potential file CH_tensile.airebo with DATE: 2011-10-25
neighbor        2.0 nsq
neigh_modify delay 0 every 1 check yes

timestep     0.0005    #时间步0.5fs

group gra1 type 1
9216 atoms in group gra1
compute gra1temp gra1 temp/com   #计算系统温度
compute atompe all pe/atom       #计算每个原子的势能
compute atomstress all stress/atom NULL   #计算每个原子的应力(六个方向，x,y,z,xy,xz,yz)

minimize	1.0e-6 1.0e-6 10000 10000	#能量最小化
  update every 1 steps, delay 0 steps, check yes
Step Temp E_pair E_mol TotEng Press
0            0   -71215.556            0   -71215.556    704.59175
Loop time of 2.46368 on 24 procs for 153 steps with 9216 atoms

Minimization stats:
  Stopping criterion = energy tolerance
  Energy initial, next-to-last, final =
  Force two-norm initial, final = 89.488950 2.2478228
  Force max component initial, final = 3.9468609 0.098198731
  Final line search alpha, max atom move = 0.22099649 0.021701574
  Iterations, force evaluations = 153 305

fix    1  gra1 npt temp 300. 300. 0.05  x 0. 0. 0.5  y 0. 0. 0.5  drag 1.2   #npt弛豫，系统控温300K, 面内方向控压为0，
thermo_style custom step temp pe etotal lx ly lz pxx pyy pzz  #输出参数
thermo           1000
dump            1 all custom 2000  gr_cnt_relax.lammpstrj id type x y z c_atompe c_atomstress[1] c_atomstress[2] c_atomstress[3]#弛豫轨迹，每2000步输出一帧轨迹数据
dump_modify 1  sort id
run             50000   #弛豫5万步，即弛豫25 ps
Step Temp PotEng TotEng Lx Ly Lz Pxx Pyy Pzz
153            0   -71644.932   -71644.932    100.98663     87.50803          160   -2661.6328    -2800.287   -80.474786
Averages over the last 26 of 52 rows, steps 26000 to 50153:
Temp PotEng TotEng Lx Ly Lz Pxx Pyy Pzz
298.98 -71318 -70961.9 99.2978 86.53 160 20.9822 18.7916 93.531
Loop time of 338.117 on 24 procs for 50000 steps with 9216 atoms

reset_timestep 0
undump  1
dump            1 all custom 2000  gr_cnt_tensile.lammpstrj id type x y z c_atompe c_atomstress[1] c_atomstress[2] c_atomstress[3] #拉伸动画，每2000步输出一帧轨迹数据
dump_modify 1  sort id
unfix 1
fix    1  gra1 npt temp 300. 300. 0.05   x 0. 0. 0.5  drag 1.2   #系统控温300K, x方向控压为0
fix 2 all deform 1 y erate 0.004 remap x    #fix deform, 给y方向盒子一个均匀应变率4*1.0e-8 s-1
variable 	strain_y equal step*0.000002    #0.0005*0.004
variable 	stress_y equal "-pyy*lz/(3.34*10132.5*2)"   #10132.5 单位换算后的大气压强，3.34单层石墨烯厚度，系数2--视交链结构计算厚度为2层石墨烯（拉伸主要是石墨烯纸受力）
thermo_style custom step temp pe etotal lx ly lz pxx pyy pzz
thermo           100
run 80000  #运行8万步
Step Temp PotEng TotEng Lx Ly Lz Pxx Pyy Pzz
0    303.80005   -71314.138   -70952.272    98.545831    86.501626          160   -142.54749    139.12458   -546.93967
Averages over the last 401 of 801 rows, steps 40000 to 80000:
Temp PotEng TotEng Lx Ly Lz Pxx Pyy Pzz
303.41 -70429 -70067.6 98.8336 96.8818 160 -1.27473 -8784.12 1.97757
Loop time of 562.553 on 24 procs for 80000 steps with 9216 atoms
