LAMMPS (3 Mar 2020)
# gas phase methane

units           metal
boundary        p p p
atom_style      atomic

neighbor        1.0 bin
neigh_modify    every 10 delay 0 check no

read_data	conf.lmp
  triclinic box = (0 0 0) to (10.1143 10.2631 10.2168) with tilt (0.0367499 0.138331 -0.0563222)
  reading atoms ...
  5 atoms
mass 		1 1
mass		2 12

pair_style	deepmd frozen_model_0.pb frozen_model_1.pb out_file model_devi.out out_freq 100
pair_coeff

velocity        all create 250.0 23456789
fix             1 all nvt temp 250.0 250.0 0.5
timestep        0.001

thermo_style    custom step pe ke etotal temp press vol
thermo          100
dump		1 all custom 100 ch4.dump id type x y z

run             5000
  update every 10 steps, delay 0 steps, check no
Step PotEng KinEng TotEng Temp Press Volume
0    -23.98974   0.12926014    -23.86048          250   -553.35215    1060.5429
Averages over the last 26 of 51 rows, steps 2500 to 5000:
PotEng KinEng TotEng Temp Press Volume
-23.9538 0.116341 -23.8375 225.013 40.4388 1060.54
Loop time of 15.7543 on 4 procs for 5000 steps with 5 atoms

Please see the log.cite file for references relevant to this simulation
